<?xml version="1.0" encoding="UTF-8"?>

<!-- generated on 2024-04-18 17:50:33 by Eclipse SUMO GUI Version 1.10.0
-->

<configuration xmlns:xsi="http://www.w3.org/2001/XMLSchema-instance" xsi:noNamespaceSchemaLocation="http://sumo.dlr.de/xsd/sumoConfiguration.xsd">

    <input>
        <net-file value="D:\Sayan%20Github\gain-scheduling-simulations\TestingNGSIM\trajectoryDataSet2\NGSIMTest.net.xml"/>
        <route-files value="D:\Sayan%20Github\gain-scheduling-simulations\TestingNGSIM\trajectoryDataSet2\NGSIMTest.rou.xml"/>
    </input>


    <time>
        <begin value="0"/>
        <step-length value = "0.01"/>
    </time>
   <processing>
    <lateral-resolution value="0.01" />
   </processing>


</configuration>
