<?xml version="1.0" encoding="UTF-8"?>

<!-- generated on 2024-04-19 12:48:50 by Eclipse SUMO netedit Version 1.10.0
<configuration xmlns:xsi="http://www.w3.org/2001/XMLSchema-instance" xsi:noNamespaceSchemaLocation="http://sumo.dlr.de/xsd/netconvertConfiguration.xsd">

    <input>
        <sumo-net-file value="D:\Sayan%20Github\gain-scheduling-simulations\TestingNGSIM\trajectoryDataSet2\NGSIMTest.net.xml"/>
    </input>

    <output>
        <output-file value="D:\Sayan%20Github\gain-scheduling-simulations\TestingNGSIM\trajectoryDataSet2\NGSIMTest.net.xml"/>
    </output>

    <processing>
        <geometry.min-radius.fix.railways value="false"/>
        <geometry.max-grade.fix value="false"/>
        <offset.disable-normalization value="true"/>
        <lefthand value="false"/>
    </processing>

    <junctions>
        <no-internal-links value="true"/>
        <no-turnarounds value="true"/>
        <junctions.corner-detail value="5"/>
        <junctions.limit-turn-speed value="5.5"/>
        <rectangular-lane-cut value="false"/>
    </junctions>

    <pedestrian>
        <walkingareas value="false"/>
    </pedestrian>

    <report>
        <aggregate-warnings value="5"/>
    </report>

</configuration>
-->

<net version="1.9" junctionCornerDetail="5" limitTurnSpeed="5.50" xmlns:xsi="http://www.w3.org/2001/XMLSchema-instance" xsi:noNamespaceSchemaLocation="http://sumo.dlr.de/xsd/net_file.xsd">

    <location netOffset="0.00,0.00" convBoundary="0.00,14.00,400.00,14.00" origBoundary="-10000000000.00,-10000000000.00,10000000000.00,10000000000.00" projParameter="!"/>

    <edge id="AB" from="A" to="B" priority="-1">
        <lane id="AB_0" index="0" speed="13.89" length="400.00" width="3.50" shape="0.00,8.75 400.00,8.75"/>
        <lane id="AB_1" index="1" speed="13.89" length="400.00" width="3.50" shape="0.00,12.25 400.00,12.25"/>
    </edge>

    <junction id="A" type="dead_end" x="0.00" y="14.00" incLanes="" intLanes="" shape="0.00,14.00 0.00,7.00"/>
    <junction id="B" type="dead_end" x="400.00" y="14.00" incLanes="AB_0 AB_1" intLanes="" shape="400.00,7.00 400.00,14.00"/>

</net>
