<?xml version="1.0" encoding="UTF-8"?>

<!-- generated on 2024-04-18 12:02:42 by Eclipse SUMO netedit Version 1.10.0
<configuration xmlns:xsi="http://www.w3.org/2001/XMLSchema-instance" xsi:noNamespaceSchemaLocation="http://sumo.dlr.de/xsd/netconvertConfiguration.xsd">

    <input>
        <sumo-net-file value="D:\Sayan%20Github\gain-scheduling-simulations\TestingNGSIM\NGSIMTest.net.xml"/>
    </input>

    <output>
        <output-file value="D:\Sayan%20Github\gain-scheduling-simulations\TestingNGSIM\NGSIMTest.net.xml"/>
    </output>

    <processing>
        <geometry.min-radius.fix.railways value="false"/>
        <geometry.max-grade.fix value="false"/>
        <offset.disable-normalization value="true"/>
        <lefthand value="false"/>
    </processing>

    <junctions>
        <no-internal-links value="true"/>
        <no-turnarounds value="true"/>
        <junctions.corner-detail value="5"/>
        <junctions.limit-turn-speed value="5.5"/>
        <rectangular-lane-cut value="false"/>
    </junctions>

    <pedestrian>
        <walkingareas value="false"/>
    </pedestrian>

    <report>
        <aggregate-warnings value="5"/>
    </report>

</configuration>
-->

<net version="1.9" junctionCornerDetail="5" limitTurnSpeed="5.50" xmlns:xsi="http://www.w3.org/2001/XMLSchema-instance" xsi:noNamespaceSchemaLocation="http://sumo.dlr.de/xsd/net_file.xsd">

    <location netOffset="0.00,0.00" convBoundary="4.32,63.92,2500.00,63.92" origBoundary="-10000000000.00,-10000000000.00,10000000000.00,10000000000.00" projParameter="!"/>

    <edge id="AB" from="A" to="B" priority="-1">
        <lane id="AB_0" index="0" speed="13.89" length="2495.68" shape="4.32,52.72 2500.00,52.72"/>
        <lane id="AB_1" index="1" speed="13.89" length="2495.68" shape="4.32,55.92 2500.00,55.92"/>
        <lane id="AB_2" index="2" speed="13.89" length="2495.68" shape="4.32,59.12 2500.00,59.12"/>
        <lane id="AB_3" index="3" speed="13.89" length="2495.68" shape="4.32,62.32 2500.00,62.32"/>
    </edge>

    <junction id="A" type="dead_end" x="4.32" y="63.92" incLanes="" intLanes="" shape="4.32,63.92 4.32,51.12"/>
    <junction id="B" type="dead_end" x="2500.00" y="63.92" incLanes="AB_0 AB_1 AB_2 AB_3" intLanes="" shape="2500.00,51.12 2500.00,63.92"/>

</net>
