<?xml version="1.0" encoding="UTF-8"?>

<!-- generated on 2024-04-18 11:41:21 by Eclipse SUMO GUI Version 1.10.0
-->

<configuration xmlns:xsi="http://www.w3.org/2001/XMLSchema-instance" xsi:noNamespaceSchemaLocation="http://sumo.dlr.de/xsd/sumoConfiguration.xsd">

    <input>
        <net-file value="D:\Sayan%20Github\gain-scheduling-simulations\TestingNGSIM\trajectoryDataSet1\NGSIMTest.net.xml"/>
        <route-files value="D:\Sayan%20Github\gain-scheduling-simulations\TestingNGSIM\trajectoryDataSet1\NGSIMTest.rou.xml"/>
    </input>

    <time>
        <begin value="0"/>
        <step-length value = "0.1"/>
    </time>

</configuration>
